/*--------------------------------*- C++ -*----------------------------------*\ 
| =========                 |                                                 | 
| \\      /  F ield         | OpenFOAM: The Open Source CFD Toolbox           | 
|  \\    /   O peration     | Version:  3.0.x                                 | 
|   \\  /    A nd           | Web:      www.OpenFOAM.com                      | 
|    \\/     M anipulation  |                                                 | 
\*---------------------------------------------------------------------------*/ 
FoamFile                                                                        
{                                                                               
    version     2.0;                                                            
    format      ascii;                                                          
    class       dictionary;                                                     
    object      blockMeshDict;                                                  
}                                                                               
// * * * * * * * * * * * * * * * * * * * * * * * * * * * * * * * * * * * * * // 

convertToMeters 1.000000; 

vertices 
( 
    (-7.392216 0.500000 2.690547)
    (0.133368 0.500000 8.000000)
    (0.704769 0.500000 8.000000)
    (16.000000 0.500000 8.000000)
    (-0.233420 0.500000 0.089108)
    (0.133368 0.500000 0.093547)
    (0.026043 0.500000 -0.181854)
    (0.704769 0.500000 -0.256515)
    (16.000000 0.500000 -0.256515)
    (0.026043 0.500000 -8.000000)
    (0.704769 0.500000 -8.000000)
    (16.000000 0.500000 -8.000000)
    (-7.392216 -0.500000 2.690547)
    (0.133368 -0.500000 8.000000)
    (0.704769 -0.500000 8.000000)
    (16.000000 -0.500000 8.000000)
    (-0.233420 -0.500000 0.089108)
    (0.133368 -0.500000 0.093547)
    (0.026043 -0.500000 -0.181854)
    (0.704769 -0.500000 -0.256515)
    (16.000000 -0.500000 -0.256515)
    (0.026043 -0.500000 -8.000000)
    (0.704769 -0.500000 -8.000000)
    (16.000000 -0.500000 -8.000000)
); 

blocks 
( 
    hex (4 5 1 0 16 17 13 12)     (81 120 1) edgeGrading (1 0.020000 0.020000 1 800.000000 800.000000 800.000000 800.000000 1 1 1 1) 
    hex (5 7 2 1 17 19 14 13)     (119 120 1) simpleGrading (1 800.000000 1) 
    hex (7 8 3 2 19 20 15 14)     (150 120 1) simpleGrading (80.000000 800.000000 1) 
    hex (16 18 21 12 4 6 9 0)     (81 120 1) edgeGrading (1 0.020000 0.020000 1 800.000000 800.000000 800.000000 800.000000 1 1 1 1) 
    hex (18 19 22 21 6 7 10 9)    (119 120 1) simpleGrading (1 800.000000 1) 
    hex (19 20 23 22 7 8 11 10)   (150 120 1) simpleGrading (80.000000 800.000000 1) 
); 

edges 
( 
    spline 4 5 
        ( 
            (-0.232417 0.500000 0.091105) 
            (-0.231367 0.500000 0.092937) 
            (-0.230304 0.500000 0.094572) 
            (-0.229176 0.500000 0.096120) 
            (-0.228001 0.500000 0.097565) 
            (-0.226725 0.500000 0.098995) 
            (-0.225377 0.500000 0.100388) 
            (-0.223938 0.500000 0.101769) 
            (-0.222424 0.500000 0.103122) 
            (-0.220802 0.500000 0.104480) 
            (-0.219101 0.500000 0.105819) 
            (-0.217306 0.500000 0.107155) 
            (-0.215416 0.500000 0.108489) 
            (-0.213450 0.500000 0.109796) 
            (-0.211377 0.500000 0.111106) 
            (-0.209229 0.500000 0.112388) 
            (-0.206986 0.500000 0.113668) 
            (-0.204668 0.500000 0.114921) 
            (-0.202245 0.500000 0.116168) 
            (-0.199744 0.500000 0.117396) 
            (-0.197155 0.500000 0.118604) 
            (-0.194491 0.500000 0.119784) 
            (-0.191726 0.500000 0.120948) 
            (-0.188886 0.500000 0.122085) 
            (-0.185957 0.500000 0.123201) 
            (-0.182941 0.500000 0.124295) 
            (-0.179850 0.500000 0.125363) 
            (-0.176664 0.500000 0.126395) 
            (-0.173400 0.500000 0.127410) 
            (-0.170055 0.500000 0.128385) 
            (-0.166635 0.500000 0.129332) 
            (-0.163121 0.500000 0.130245) 
            (-0.159535 0.500000 0.131122) 
            (-0.155864 0.500000 0.131967) 
            (-0.152122 0.500000 0.132776) 
            (-0.148289 0.500000 0.133541) 
            (-0.144381 0.500000 0.134279) 
            (-0.140395 0.500000 0.134968) 
            (-0.136325 0.500000 0.135625) 
            (-0.132190 0.500000 0.136227) 
            (-0.127960 0.500000 0.136795) 
            (-0.123659 0.500000 0.137326) 
            (-0.119293 0.500000 0.137801) 
            (-0.114840 0.500000 0.138224) 
            (-0.110316 0.500000 0.138609) 
            (-0.105704 0.500000 0.138942) 
            (-0.101027 0.500000 0.139219) 
            (-0.096282 0.500000 0.139450) 
            (-0.091449 0.500000 0.139628) 
            (-0.086552 0.500000 0.139751) 
            (-0.081581 0.500000 0.139814) 
            (-0.076531 0.500000 0.139828) 
            (-0.071417 0.500000 0.139786) 
            (-0.066232 0.500000 0.139676) 
            (-0.060973 0.500000 0.139507) 
            (-0.055639 0.500000 0.139279) 
            (-0.050235 0.500000 0.138983) 
            (-0.044768 0.500000 0.138622) 
            (-0.039232 0.500000 0.138192) 
            (-0.033624 0.500000 0.137694) 
            (-0.027945 0.500000 0.137128) 
            (-0.022208 0.500000 0.136487) 
            (-0.016394 0.500000 0.135765) 
            (-0.010519 0.500000 0.134978) 
            (-0.004593 0.500000 0.134098) 
            (0.001410 0.500000 0.133137) 
            (0.007468 0.500000 0.132092) 
            (0.013590 0.500000 0.130960) 
            (0.019770 0.500000 0.129722) 
            (0.026013 0.500000 0.128396) 
            (0.032304 0.500000 0.126969) 
            (0.038652 0.500000 0.125435) 
            (0.045058 0.500000 0.123795) 
            (0.051520 0.500000 0.122049) 
            (0.057946 0.500000 0.120232) 
            (0.064354 0.500000 0.118336) 
            (0.070738 0.500000 0.116374) 
            (0.077086 0.500000 0.114341) 
            (0.083422 0.500000 0.112247) 
            (0.089737 0.500000 0.110098) 
            (0.096020 0.500000 0.107886) 
            (0.102294 0.500000 0.105623) 
            (0.108548 0.500000 0.103304) 
            (0.114776 0.500000 0.100942) 
            (0.120992 0.500000 0.098520) 
            (0.127195 0.500000 0.096060) 
        ) 
    spline 5 7 
        ( 
            (0.139537 0.500000 0.090993)
            (0.145691 0.500000 0.088402)
            (0.151820 0.500000 0.085767)
            (0.157944 0.500000 0.083091)
            (0.164054 0.500000 0.080377)
            (0.170138 0.500000 0.077620)
            (0.176221 0.500000 0.074832)
            (0.182291 0.500000 0.072005)
            (0.188340 0.500000 0.069154)
            (0.194386 0.500000 0.066262)
            (0.200418 0.500000 0.063333)
            (0.206430 0.500000 0.060378)
            (0.212441 0.500000 0.057392)
            (0.218442 0.500000 0.054378)
            (0.224423 0.500000 0.051339)
            (0.230400 0.500000 0.048259)
            (0.236371 0.500000 0.045160)
            (0.242324 0.500000 0.042046)
            (0.248274 0.500000 0.038891)
            (0.254217 0.500000 0.035717)
            (0.260144 0.500000 0.032527)
            (0.266069 0.500000 0.029306)
            (0.271988 0.500000 0.026067)
            (0.277891 0.500000 0.022811)
            (0.283793 0.500000 0.019525)
            (0.289688 0.500000 0.016219)
            (0.295566 0.500000 0.012898)
            (0.301444 0.500000 0.009546)
            (0.307319 0.500000 0.006184)
            (0.313177 0.500000 0.002806)
            (0.319034 0.500000 -0.000602)
            (0.324888 0.500000 -0.004021)
            (0.330726 0.500000 -0.007454)
            (0.336566 0.500000 -0.010910)
            (0.342403 0.500000 -0.014376)
            (0.348223 0.500000 -0.017856)
            (0.354046 0.500000 -0.021359)
            (0.359863 0.500000 -0.024881)
            (0.365666 0.500000 -0.028408)
            (0.371476 0.500000 -0.031949)
            (0.377275 0.500000 -0.035518)
            (0.383065 0.500000 -0.039083)
            (0.388857 0.500000 -0.042670)
            (0.394642 0.500000 -0.046276)
            (0.400418 0.500000 -0.049879)
            (0.406194 0.500000 -0.053514)
            (0.411969 0.500000 -0.057148)
            (0.417731 0.500000 -0.060789)
            (0.423496 0.500000 -0.064451)
            (0.429258 0.500000 -0.068123)
            (0.435007 0.500000 -0.071801)
            (0.440761 0.500000 -0.075492)
            (0.446513 0.500000 -0.079192)
            (0.452251 0.500000 -0.082898)
            (0.457996 0.500000 -0.086617)
            (0.463737 0.500000 -0.090346)
            (0.469468 0.500000 -0.094071)
            (0.475203 0.500000 -0.097818)
            (0.480933 0.500000 -0.101575)
            (0.486655 0.500000 -0.105328)
            (0.492382 0.500000 -0.109094)
            (0.498047 0.500000 -0.112826)
            (0.503656 0.500000 -0.116539)
            (0.509205 0.500000 -0.120208)
            (0.514689 0.500000 -0.123853)
            (0.520124 0.500000 -0.127459)
            (0.525502 0.500000 -0.131045)
            (0.530821 0.500000 -0.134588)
            (0.536074 0.500000 -0.138107)
            (0.541278 0.500000 -0.141587)
            (0.546419 0.500000 -0.145033)
            (0.551507 0.500000 -0.148449)
            (0.556533 0.500000 -0.151832)
            (0.561506 0.500000 -0.155185)
            (0.566421 0.500000 -0.158496)
            (0.571282 0.500000 -0.161776)
            (0.576084 0.500000 -0.165014)
            (0.580824 0.500000 -0.168218)
            (0.585514 0.500000 -0.171383)
            (0.590148 0.500000 -0.174528)
            (0.594723 0.500000 -0.177630)
            (0.599239 0.500000 -0.180689)
            (0.603706 0.500000 -0.183709)
            (0.608110 0.500000 -0.186695)
            (0.612461 0.500000 -0.189651)
            (0.616754 0.500000 -0.192565)
            (0.620993 0.500000 -0.195449)
            (0.625173 0.500000 -0.198290)
            (0.629301 0.500000 -0.201101)
            (0.633369 0.500000 -0.203870)
            (0.637388 0.500000 -0.206599)
            (0.641345 0.500000 -0.209295)
            (0.645239 0.500000 -0.211957)
            (0.649084 0.500000 -0.214580)
            (0.652875 0.500000 -0.217174)
            (0.656608 0.500000 -0.219724)
            (0.660275 0.500000 -0.222251)
            (0.663893 0.500000 -0.224738)
            (0.667448 0.500000 -0.227192)
            (0.670950 0.500000 -0.229616)
            (0.674390 0.500000 -0.232007)
            (0.677773 0.500000 -0.234377)
            (0.681094 0.500000 -0.236714)
            (0.684366 0.500000 -0.239011)
            (0.687571 0.500000 -0.241285)
            (0.690715 0.500000 -0.243525)
            (0.693805 0.500000 -0.245735)
            (0.696839 0.500000 -0.247925)
            (0.699818 0.500000 -0.250062)
            (0.702737 0.500000 -0.252157)
        ) 
    spline 4 6 
        ( 
            (-0.236061 0.500000 0.081854)
            (-0.236565 0.500000 0.079707)
            (-0.236959 0.500000 0.077573)
            (-0.237236 0.500000 0.075524)
            (-0.237419 0.500000 0.073473)
            (-0.237516 0.500000 0.071423)
            (-0.237529 0.500000 0.069310)
            (-0.237471 0.500000 0.067160)
            (-0.237339 0.500000 0.064952)
            (-0.237131 0.500000 0.062716)
            (-0.236839 0.500000 0.060417)
            (-0.236476 0.500000 0.058082)
            (-0.236038 0.500000 0.055688)
            (-0.235526 0.500000 0.053235)
            (-0.234943 0.500000 0.050745)
            (-0.234279 0.500000 0.048184)
            (-0.233547 0.500000 0.045576)
            (-0.232743 0.500000 0.042900)
            (-0.231869 0.500000 0.040187)
            (-0.230920 0.500000 0.037384)
            (-0.229900 0.500000 0.034544)
            (-0.228806 0.500000 0.031645)
            (-0.227639 0.500000 0.028709)
            (-0.226393 0.500000 0.025701)
            (-0.225075 0.500000 0.022656)
            (-0.223682 0.500000 0.019553)
            (-0.222215 0.500000 0.016391)
            (-0.220677 0.500000 0.013191)
            (-0.219054 0.500000 0.009930)
            (-0.217360 0.500000 0.006632)
            (-0.215585 0.500000 0.003293)
            (-0.213738 0.500000 -0.000082)
            (-0.211804 0.500000 -0.003510)
            (-0.209798 0.500000 -0.006975)
            (-0.207708 0.500000 -0.010471)
            (-0.205542 0.500000 -0.013994)
            (-0.203289 0.500000 -0.017571)
            (-0.200958 0.500000 -0.021165)
            (-0.198546 0.500000 -0.024799)
            (-0.196045 0.500000 -0.028455)
            (-0.193469 0.500000 -0.032138)
            (-0.190800 0.500000 -0.035855)
            (-0.188052 0.500000 -0.039590)
            (-0.185225 0.500000 -0.043343)
            (-0.182307 0.500000 -0.047140)
            (-0.179305 0.500000 -0.050936)
            (-0.176208 0.500000 -0.054766)
            (-0.173029 0.500000 -0.058605)
            (-0.169768 0.500000 -0.062452)
            (-0.166407 0.500000 -0.066315)
            (-0.162963 0.500000 -0.070186)
            (-0.159424 0.500000 -0.074060)
            (-0.155791 0.500000 -0.077936)
            (-0.152069 0.500000 -0.081803)
            (-0.148252 0.500000 -0.085671)
            (-0.144337 0.500000 -0.089533)
            (-0.140327 0.500000 -0.093398)
            (-0.136215 0.500000 -0.097246)
            (-0.132014 0.500000 -0.101085)
            (-0.127709 0.500000 -0.104897)
            (-0.123305 0.500000 -0.108703)
            (-0.118796 0.500000 -0.112483)
            (-0.114191 0.500000 -0.116234)
            (-0.109472 0.500000 -0.119963)
            (-0.104650 0.500000 -0.123644)
            (-0.099726 0.500000 -0.127278)
            (-0.094683 0.500000 -0.130879)
            (-0.089532 0.500000 -0.134414)
            (-0.084265 0.500000 -0.137896)
            (-0.078876 0.500000 -0.141305)
            (-0.073364 0.500000 -0.144641)
            (-0.067737 0.500000 -0.147892)
            (-0.061980 0.500000 -0.151051)
            (-0.056088 0.500000 -0.154100)
            (-0.050063 0.500000 -0.157049)
            (-0.043996 0.500000 -0.159853)
            (-0.037869 0.500000 -0.162519)
            (-0.031686 0.500000 -0.165035)
            (-0.025462 0.500000 -0.167407)
            (-0.019181 0.500000 -0.169651)
            (-0.012851 0.500000 -0.171763)
            (-0.006484 0.500000 -0.173740)
            (-0.000062 0.500000 -0.175599)
            (0.006404 0.500000 -0.177335)
            (0.012905 0.500000 -0.178946)
            (0.019457 0.500000 -0.180447)
        ) 
    spline 6 7 
        ( 
            (0.032657 0.500000 -0.183155)
            (0.039314 0.500000 -0.184365)
            (0.046010 0.500000 -0.185472)
            (0.052723 0.500000 -0.186500)
            (0.059476 0.500000 -0.187447)
            (0.066261 0.500000 -0.188309)
            (0.073063 0.500000 -0.189093)
            (0.079898 0.500000 -0.189814)
            (0.086758 0.500000 -0.190470)
            (0.093628 0.500000 -0.191065)
            (0.100532 0.500000 -0.191599)
            (0.107457 0.500000 -0.192076)
            (0.114385 0.500000 -0.192512)
            (0.121341 0.500000 -0.192904)
            (0.128309 0.500000 -0.193259)
            (0.135286 0.500000 -0.193564)
            (0.142286 0.500000 -0.193834)
            (0.149299 0.500000 -0.194067)
            (0.156317 0.500000 -0.194259)
            (0.163354 0.500000 -0.194426)
            (0.170398 0.500000 -0.194574)
            (0.177447 0.500000 -0.194681)
            (0.184511 0.500000 -0.194773)
            (0.191583 0.500000 -0.194846)
            (0.198652 0.500000 -0.194897)
            (0.205737 0.500000 -0.194932)
            (0.212829 0.500000 -0.194949)
            (0.219911 0.500000 -0.194962)
            (0.227014 0.500000 -0.194950)
            (0.234119 0.500000 -0.194929)
            (0.241216 0.500000 -0.194905)
            (0.248328 0.500000 -0.194865)
            (0.255444 0.500000 -0.194816)
            (0.262554 0.500000 -0.194754)
            (0.269677 0.500000 -0.194686)
            (0.276800 0.500000 -0.194618)
            (0.283913 0.500000 -0.194547)
            (0.291039 0.500000 -0.194469)
            (0.298162 0.500000 -0.194401)
            (0.305279 0.500000 -0.194321)
            (0.312402 0.500000 -0.194253)
            (0.319525 0.500000 -0.194185)
            (0.326635 0.500000 -0.194123)
            (0.333757 0.500000 -0.194055)
            (0.340873 0.500000 -0.194006)
            (0.347977 0.500000 -0.193962)
            (0.355086 0.500000 -0.193932)
            (0.362191 0.500000 -0.193911)
            (0.369284 0.500000 -0.193896)
            (0.376383 0.500000 -0.193894)
            (0.383475 0.500000 -0.193910)
            (0.390551 0.500000 -0.193942)
            (0.397633 0.500000 -0.193987)
            (0.404704 0.500000 -0.194060)
            (0.411759 0.500000 -0.194149)
            (0.418814 0.500000 -0.194269)
            (0.425861 0.500000 -0.194407)
            (0.432889 0.500000 -0.194571)
            (0.439916 0.500000 -0.194766)
            (0.446933 0.500000 -0.194989)
            (0.453927 0.500000 -0.195247)
            (0.460920 0.500000 -0.195536)
            (0.467823 0.500000 -0.195867)
            (0.474652 0.500000 -0.196224)
            (0.481389 0.500000 -0.196633)
            (0.488039 0.500000 -0.197074)
            (0.494612 0.500000 -0.197551)
            (0.501105 0.500000 -0.198073)
            (0.507505 0.500000 -0.198647)
            (0.513819 0.500000 -0.199253)
            (0.520052 0.500000 -0.199904)
            (0.526192 0.500000 -0.200606)
            (0.532252 0.500000 -0.201354)
            (0.538225 0.500000 -0.202134)
            (0.544118 0.500000 -0.202959)
            (0.549918 0.500000 -0.203836)
            (0.555641 0.500000 -0.204748)
            (0.561275 0.500000 -0.205703)
            (0.566818 0.500000 -0.206699)
            (0.572282 0.500000 -0.207740)
            (0.577664 0.500000 -0.208827)
            (0.582961 0.500000 -0.209946)
            (0.588165 0.500000 -0.211116)
            (0.593291 0.500000 -0.212322)
            (0.598328 0.500000 -0.213570)
            (0.603288 0.500000 -0.214854)
            (0.608162 0.500000 -0.216170)
            (0.612959 0.500000 -0.217522)
            (0.617669 0.500000 -0.218907)
            (0.622303 0.500000 -0.220328)
            (0.626854 0.500000 -0.221771)
            (0.631328 0.500000 -0.223250)
            (0.635715 0.500000 -0.224762)
            (0.640020 0.500000 -0.226297)
            (0.644251 0.500000 -0.227858)
            (0.648405 0.500000 -0.229456)
            (0.652477 0.500000 -0.231076)
            (0.656462 0.500000 -0.232728)
            (0.660370 0.500000 -0.234417)
            (0.664195 0.500000 -0.236128)
            (0.667947 0.500000 -0.237866)
            (0.671613 0.500000 -0.239637)
            (0.675201 0.500000 -0.241443)
            (0.678703 0.500000 -0.243282)
            (0.682132 0.500000 -0.245147)
            (0.685478 0.500000 -0.247035)
            (0.688741 0.500000 -0.248947)
            (0.691931 0.500000 -0.250885)
            (0.695047 0.500000 -0.252849)
            (0.698080 0.500000 -0.254836)
        ) 
    spline 16 17 
        ( 
            (-0.232417 -0.500000 0.091105)
            (-0.231367 -0.500000 0.092937)
            (-0.230304 -0.500000 0.094572)
            (-0.229176 -0.500000 0.096120)
            (-0.228001 -0.500000 0.097565)
            (-0.226725 -0.500000 0.098995)
            (-0.225377 -0.500000 0.100388)
            (-0.223938 -0.500000 0.101769)
            (-0.222424 -0.500000 0.103122)
            (-0.220802 -0.500000 0.104480)
            (-0.219101 -0.500000 0.105819)
            (-0.217306 -0.500000 0.107155)
            (-0.215416 -0.500000 0.108489)
            (-0.213450 -0.500000 0.109796)
            (-0.211377 -0.500000 0.111106)
            (-0.209229 -0.500000 0.112388)
            (-0.206986 -0.500000 0.113668)
            (-0.204668 -0.500000 0.114921)
            (-0.202245 -0.500000 0.116168)
            (-0.199744 -0.500000 0.117396)
            (-0.197155 -0.500000 0.118604)
            (-0.194491 -0.500000 0.119784)
            (-0.191726 -0.500000 0.120948)
            (-0.188886 -0.500000 0.122085)
            (-0.185957 -0.500000 0.123201)
            (-0.182941 -0.500000 0.124295)
            (-0.179850 -0.500000 0.125363)
            (-0.176664 -0.500000 0.126395)
            (-0.173400 -0.500000 0.127410)
            (-0.170055 -0.500000 0.128385)
            (-0.166635 -0.500000 0.129332)
            (-0.163121 -0.500000 0.130245)
            (-0.159535 -0.500000 0.131122)
            (-0.155864 -0.500000 0.131967)
            (-0.152122 -0.500000 0.132776)
            (-0.148289 -0.500000 0.133541)
            (-0.144381 -0.500000 0.134279)
            (-0.140395 -0.500000 0.134968)
            (-0.136325 -0.500000 0.135625)
            (-0.132190 -0.500000 0.136227)
            (-0.127960 -0.500000 0.136795)
            (-0.123659 -0.500000 0.137326)
            (-0.119293 -0.500000 0.137801)
            (-0.114840 -0.500000 0.138224)
            (-0.110316 -0.500000 0.138609)
            (-0.105704 -0.500000 0.138942)
            (-0.101027 -0.500000 0.139219)
            (-0.096282 -0.500000 0.139450)
            (-0.091449 -0.500000 0.139628)
            (-0.086552 -0.500000 0.139751)
            (-0.081581 -0.500000 0.139814)
            (-0.076531 -0.500000 0.139828)
            (-0.071417 -0.500000 0.139786)
            (-0.066232 -0.500000 0.139676)
            (-0.060973 -0.500000 0.139507)
            (-0.055639 -0.500000 0.139279)
            (-0.050235 -0.500000 0.138983)
            (-0.044768 -0.500000 0.138622)
            (-0.039232 -0.500000 0.138192)
            (-0.033624 -0.500000 0.137694)
            (-0.027945 -0.500000 0.137128)
            (-0.022208 -0.500000 0.136487)
            (-0.016394 -0.500000 0.135765)
            (-0.010519 -0.500000 0.134978)
            (-0.004593 -0.500000 0.134098)
            (0.001410 -0.500000 0.133137)
            (0.007468 -0.500000 0.132092)
            (0.013590 -0.500000 0.130960)
            (0.019770 -0.500000 0.129722)
            (0.026013 -0.500000 0.128396)
            (0.032304 -0.500000 0.126969)
            (0.038652 -0.500000 0.125435)
            (0.045058 -0.500000 0.123795)
            (0.051520 -0.500000 0.122049)
            (0.057946 -0.500000 0.120232)
            (0.064354 -0.500000 0.118336)
            (0.070738 -0.500000 0.116374)
            (0.077086 -0.500000 0.114341)
            (0.083422 -0.500000 0.112247)
            (0.089737 -0.500000 0.110098)
            (0.096020 -0.500000 0.107886)
            (0.102294 -0.500000 0.105623)
            (0.108548 -0.500000 0.103304)
            (0.114776 -0.500000 0.100942)
            (0.120992 -0.500000 0.098520)
            (0.127195 -0.500000 0.096060)
        ) 
    spline 17 19 
        ( 
            (0.139537 -0.500000 0.090993)
            (0.145691 -0.500000 0.088402)
            (0.151820 -0.500000 0.085767)
            (0.157944 -0.500000 0.083091)
            (0.164054 -0.500000 0.080377)
            (0.170138 -0.500000 0.077620)
            (0.176221 -0.500000 0.074832)
            (0.182291 -0.500000 0.072005)
            (0.188340 -0.500000 0.069154)
            (0.194386 -0.500000 0.066262)
            (0.200418 -0.500000 0.063333)
            (0.206430 -0.500000 0.060378)
            (0.212441 -0.500000 0.057392)
            (0.218442 -0.500000 0.054378)
            (0.224423 -0.500000 0.051339)
            (0.230400 -0.500000 0.048259)
            (0.236371 -0.500000 0.045160)
            (0.242324 -0.500000 0.042046)
            (0.248274 -0.500000 0.038891)
            (0.254217 -0.500000 0.035717)
            (0.260144 -0.500000 0.032527)
            (0.266069 -0.500000 0.029306)
            (0.271988 -0.500000 0.026067)
            (0.277891 -0.500000 0.022811)
            (0.283793 -0.500000 0.019525)
            (0.289688 -0.500000 0.016219)
            (0.295566 -0.500000 0.012898)
            (0.301444 -0.500000 0.009546)
            (0.307319 -0.500000 0.006184)
            (0.313177 -0.500000 0.002806)
            (0.319034 -0.500000 -0.000602)
            (0.324888 -0.500000 -0.004021)
            (0.330726 -0.500000 -0.007454)
            (0.336566 -0.500000 -0.010910)
            (0.342403 -0.500000 -0.014376)
            (0.348223 -0.500000 -0.017856)
            (0.354046 -0.500000 -0.021359)
            (0.359863 -0.500000 -0.024881)
            (0.365666 -0.500000 -0.028408)
            (0.371476 -0.500000 -0.031949)
            (0.377275 -0.500000 -0.035518)
            (0.383065 -0.500000 -0.039083)
            (0.388857 -0.500000 -0.042670)
            (0.394642 -0.500000 -0.046276)
            (0.400418 -0.500000 -0.049879)
            (0.406194 -0.500000 -0.053514)
            (0.411969 -0.500000 -0.057148)
            (0.417731 -0.500000 -0.060789)
            (0.423496 -0.500000 -0.064451)
            (0.429258 -0.500000 -0.068123)
            (0.435007 -0.500000 -0.071801)
            (0.440761 -0.500000 -0.075492)
            (0.446513 -0.500000 -0.079192)
            (0.452251 -0.500000 -0.082898)
            (0.457996 -0.500000 -0.086617)
            (0.463737 -0.500000 -0.090346)
            (0.469468 -0.500000 -0.094071)
            (0.475203 -0.500000 -0.097818)
            (0.480933 -0.500000 -0.101575)
            (0.486655 -0.500000 -0.105328)
            (0.492382 -0.500000 -0.109094)
            (0.498047 -0.500000 -0.112826)
            (0.503656 -0.500000 -0.116539)
            (0.509205 -0.500000 -0.120208)
            (0.514689 -0.500000 -0.123853)
            (0.520124 -0.500000 -0.127459)
            (0.525502 -0.500000 -0.131045)
            (0.530821 -0.500000 -0.134588)
            (0.536074 -0.500000 -0.138107)
            (0.541278 -0.500000 -0.141587)
            (0.546419 -0.500000 -0.145033)
            (0.551507 -0.500000 -0.148449)
            (0.556533 -0.500000 -0.151832)
            (0.561506 -0.500000 -0.155185)
            (0.566421 -0.500000 -0.158496)
            (0.571282 -0.500000 -0.161776)
            (0.576084 -0.500000 -0.165014)
            (0.580824 -0.500000 -0.168218)
            (0.585514 -0.500000 -0.171383)
            (0.590148 -0.500000 -0.174528)
            (0.594723 -0.500000 -0.177630)
            (0.599239 -0.500000 -0.180689)
            (0.603706 -0.500000 -0.183709)
            (0.608110 -0.500000 -0.186695)
            (0.612461 -0.500000 -0.189651)
            (0.616754 -0.500000 -0.192565)
            (0.620993 -0.500000 -0.195449)
            (0.625173 -0.500000 -0.198290)
            (0.629301 -0.500000 -0.201101)
            (0.633369 -0.500000 -0.203870)
            (0.637388 -0.500000 -0.206599)
            (0.641345 -0.500000 -0.209295)
            (0.645239 -0.500000 -0.211957)
            (0.649084 -0.500000 -0.214580)
            (0.652875 -0.500000 -0.217174)
            (0.656608 -0.500000 -0.219724)
            (0.660275 -0.500000 -0.222251)
            (0.663893 -0.500000 -0.224738)
            (0.667448 -0.500000 -0.227192)
            (0.670950 -0.500000 -0.229616)
            (0.674390 -0.500000 -0.232007)
            (0.677773 -0.500000 -0.234377)
            (0.681094 -0.500000 -0.236714)
            (0.684366 -0.500000 -0.239011)
            (0.687571 -0.500000 -0.241285)
            (0.690715 -0.500000 -0.243525)
            (0.693805 -0.500000 -0.245735)
            (0.696839 -0.500000 -0.247925)
            (0.699818 -0.500000 -0.250062)
            (0.702737 -0.500000 -0.252157)
        ) 
    spline 16 18 
        ( 
            (-0.236061 -0.500000 0.081854)
            (-0.236565 -0.500000 0.079707)
            (-0.236959 -0.500000 0.077573)
            (-0.237236 -0.500000 0.075524)
            (-0.237419 -0.500000 0.073473)
            (-0.237516 -0.500000 0.071423)
            (-0.237529 -0.500000 0.069310)
            (-0.237471 -0.500000 0.067160)
            (-0.237339 -0.500000 0.064952)
            (-0.237131 -0.500000 0.062716)
            (-0.236839 -0.500000 0.060417)
            (-0.236476 -0.500000 0.058082)
            (-0.236038 -0.500000 0.055688)
            (-0.235526 -0.500000 0.053235)
            (-0.234943 -0.500000 0.050745)
            (-0.234279 -0.500000 0.048184)
            (-0.233547 -0.500000 0.045576)
            (-0.232743 -0.500000 0.042900)
            (-0.231869 -0.500000 0.040187)
            (-0.230920 -0.500000 0.037384)
            (-0.229900 -0.500000 0.034544)
            (-0.228806 -0.500000 0.031645)
            (-0.227639 -0.500000 0.028709)
            (-0.226393 -0.500000 0.025701)
            (-0.225075 -0.500000 0.022656)
            (-0.223682 -0.500000 0.019553)
            (-0.222215 -0.500000 0.016391)
            (-0.220677 -0.500000 0.013191)
            (-0.219054 -0.500000 0.009930)
            (-0.217360 -0.500000 0.006632)
            (-0.215585 -0.500000 0.003293)
            (-0.213738 -0.500000 -0.000082)
            (-0.211804 -0.500000 -0.003510)
            (-0.209798 -0.500000 -0.006975)
            (-0.207708 -0.500000 -0.010471)
            (-0.205542 -0.500000 -0.013994)
            (-0.203289 -0.500000 -0.017571)
            (-0.200958 -0.500000 -0.021165)
            (-0.198546 -0.500000 -0.024799)
            (-0.196045 -0.500000 -0.028455)
            (-0.193469 -0.500000 -0.032138)
            (-0.190800 -0.500000 -0.035855)
            (-0.188052 -0.500000 -0.039590)
            (-0.185225 -0.500000 -0.043343)
            (-0.182307 -0.500000 -0.047140)
            (-0.179305 -0.500000 -0.050936)
            (-0.176208 -0.500000 -0.054766)
            (-0.173029 -0.500000 -0.058605)